# log_level : "SILENT" or "WHISPER" or "LOUD", default = "SILENT"
# debug_mode : .true. or .false., default = .false.
&coupler_config
  log_level = "LOUD"
  debug_mode  = .true.
&end

&nam_ici  comp_put = "COMP1"      ,  comp_get = "COMP2",
          grid_put = "COMP1_GRID" ,  grid_get = "COMP2_GRID", /
&nam_ici  var_put  = "varc1c2"     ,  var_get  = "varc1c2"     , grid_intpl_tag = 1, intvl=3600,  lag=-1,  layer = 1, flag='SNP' /

&nam_ici  comp_put = "COMP2"      ,  comp_get = "COMP1",
          grid_put = "COMP2_GRID" ,  grid_get = "COMP1_GRID", /
&nam_ici  var_put  = "varc2c1"    ,  var_get  = "varc2c1"  , grid_intpl_tag = 7, intvl=3600,  lag=-1,  layer = 1, flag='SNP' /

